version 2
run General-0-20210601-08:40:51-16709
attr configname General
attr datetime 20210601-08:40:51
attr experiment General
attr inifile omnetpp.ini
attr iterationvars ""
attr iterationvarsf ""
attr measurement ""
attr network Network
attr processid 16709
attr repetition 0
attr replication #0
attr resultdir results
attr runnumber 0
attr seedset 0
param Network.node[{4}].app.interArrivalTime exponential(1)
param Network.node[{4}].app.packetByteSize 125000
param Network.node[{4}].app.destination 5

vector 0 Network.node[4].lnk[0] "Buffer Size" ETV
vector 1 Network.node[3].lnk[0] "Buffer Size" ETV
vector 2 Network.node[2].lnk[0] "Buffer Size" ETV
vector 3 Network.node[1].lnk[0] "Buffer Size" ETV
vector 4 Network.node[0].lnk[0] "Buffer Size" ETV
vector 5 Network.node[7].lnk[0] "Buffer Size" ETV
vector 6 Network.node[6].lnk[0] "Buffer Size" ETV
vector 7 Network.node[5].lnk[1] "Buffer Size" ETV
vector 8 Network.node[5].lnk[0] "Buffer Size" ETV
vector 9 Network.node[5].app Delay ETV
vector 10 Network.node[6].lnk[1] "Buffer Size" ETV
vector 11 Network.node[4].app Delay ETV
vector 12 Network.node[7].lnk[1] "Buffer Size" ETV
vector 13 Network.node[4].lnk[1] "Buffer Size" ETV
vector 14 Network.node[0].lnk[1] "Buffer Size" ETV
vector 15 Network.node[1].lnk[1] "Buffer Size" ETV
vector 16 Network.node[2].lnk[1] "Buffer Size" ETV
vector 17 Network.node[3].lnk[1] "Buffer Size" ETV
0	3	0.898560388484	1
0	4	0.898560388484	0
1	8	1.898660388484	1
1	9	1.898660388484	0
2	13	2.898760388484	1
2	14	2.898760388484	0
3	18	3.898860388484	1
3	19	3.898860388484	0
4	23	4.898960388484	1
4	24	4.898960388484	0
5	28	5.899060388484	1
5	29	5.899060388484	0
6	33	6.899160388484	1
6	34	6.899160388484	0
7	38	7.899260388484	1
7	41	7.899260388484	0
8	39	7.899260388484	1
8	42	7.899260388484	0
9	40	7.899260388484	7.0007
9	69	11.155391146531	1.0001
9	90	13.014995358606	1.0001
9	99	14.014995358606	1.076876868529
9	114	15.889763825961	1.0001
9	118	16.889763825961	1.212898860018
9	129	18.555929020146	1.0001
9	136	19.555929020146	1.44905151333
9	143	20.555929020146	1.472045086937
9	156	21.555929020146	1.433885786273
9	160	22.555929020146	1.948757622551
9	164	23.555929020146	2.373238425668
9	174	24.555929020146	3.02007928653
9	178	25.555929020146	1.796554864494
9	182	26.555929020146	2.738170195401
9	196	28.132771104673	1.0001
9	203	29.132771104673	1.681743859158
9	207	30.132771104673	2.19814175421
9	214	31.132771104673	2.548695405959
9	221	32.132771104673	1.979799288336
9	228	33.132771104673	1.307588088011
9	238	34.132771104673	1.554913974698
10	49	8.899360388484	1
10	51	8.899360388484	0
11	50	8.899360388484	1.0001
11	107	14.899960388484	7.0007
12	55	9.899460388484	1
12	56	9.899460388484	0
13	59	10.155291146531	1
13	60	10.155291146531	0
13	77	12.014895358606	1
13	78	12.014895358606	0
13	86	12.938118490077	1
13	87	13.014895358606	0
13	102	14.889663825961	1
13	103	14.889663825961	0
13	110	15.676864965943	1
13	111	15.889663825961	0
13	121	17.555829020146	1
13	122	17.555829020146	0
13	125	18.106877506816	1
13	126	18.555829020146	0
13	132	19.083883933209	1
13	133	19.555829020146	0
13	139	20.122043233873	1
13	140	20.555829020146	0
13	146	20.607171397595	1
13	149	21.182690594478	2
13	152	21.535849733616	3
13	153	21.555829020146	2
13	157	22.555829020146	1
13	161	23.555829020146	0
13	167	23.759374155652	1
13	170	23.817758824745	2
13	171	24.555829020146	1
13	175	25.555829020146	0
13	185	27.132671104673	1
13	186	27.132671104673	0
13	189	27.451027245515	1
13	192	27.934629350463	2
13	193	28.132671104673	1
13	199	28.584075698714	2
13	200	29.132671104673	1
13	204	30.132671104673	0
13	210	30.152971816337	1
13	211	31.132671104673	0
13	217	31.825183016662	1
13	218	32.132671104673	0
13	224	32.577857129975	1
13	225	33.132671104673	0
13	231	33.231739697196	1
13	234	34.071172550096	2
13	235	34.132671104673	1
14	64	10.899560388484	1
14	65	10.899560388484	0
15	73	11.899660388484	1
15	74	11.899660388484	0
16	82	12.899760388484	1
16	83	12.899760388484	0
17	94	13.899860388484	1
17	95	13.899860388484	0

